Version 4
SHEET 1 880 680
WIRE -576 -240 -704 -240
WIRE -704 -144 -704 -240
WIRE -576 -80 -576 -240
WIRE 16 -80 -240 -80
WIRE -704 -48 -704 -64
WIRE 16 -48 16 -80
WIRE -240 16 -240 -80
WIRE -576 32 -576 0
WIRE -448 32 -576 32
WIRE -272 32 -448 32
WIRE 16 48 16 32
WIRE -272 64 -384 64
WIRE -576 80 -576 32
WIRE 224 112 -96 112
WIRE -384 160 -384 144
WIRE -272 160 -384 160
WIRE -576 192 -576 160
WIRE -272 192 -576 192
WIRE -576 224 -576 192
WIRE -240 240 -240 208
WIRE -208 240 -240 240
WIRE -160 240 -160 176
WIRE -160 240 -208 240
WIRE -208 288 -208 240
FLAG -704 -48 0
FLAG -208 288 0
FLAG -576 224 0
FLAG 224 112 ADC
FLAG -448 32 OUT_motor
FLAG 16 48 0
SYMBOL AD623 -240 112 R0
SYMATTR InstName U2
SYMBOL res -400 48 R0
SYMATTR InstName RG
SYMATTR Value 422k
SYMBOL voltage -704 -160 R0
SYMATTR InstName V1
SYMATTR Value 12
SYMBOL res -592 64 R0
SYMATTR InstName Rshunt
SYMATTR Value 0.1
SYMBOL res -592 -96 R0
SYMATTR InstName R3
SYMATTR Value {R}
SYMBOL voltage 16 -64 R0
SYMATTR InstName V2
SYMATTR Value 3.3
TEXT -8 288 Left 2 !.tran 4ms
TEXT -16 232 Left 2 !.step param R 1 10 2
